Version 4
SHEET 1 1312 752
WIRE 576 112 560 112
WIRE 672 112 656 112
WIRE 176 224 176 176
WIRE 176 224 112 224
WIRE 368 224 176 224
WIRE 720 240 464 240
WIRE 112 256 112 224
WIRE 368 256 368 224
WIRE 720 288 720 240
WIRE 672 304 672 112
WIRE 688 304 672 304
WIRE 688 336 624 336
WIRE 112 384 112 336
WIRE 464 384 464 240
WIRE 464 384 112 384
WIRE 1040 384 864 384
WIRE 1200 384 1120 384
WIRE 1296 384 1264 384
WIRE 1296 400 1296 384
WIRE 368 432 368 336
WIRE 464 432 368 432
WIRE 624 432 624 416
WIRE 688 432 624 432
WIRE 112 464 112 384
WIRE 368 464 368 432
WIRE 560 464 560 112
WIRE 688 464 560 464
WIRE 800 480 800 448
WIRE 464 528 464 432
WIRE 720 528 720 480
WIRE 720 528 464 528
WIRE 112 624 112 544
WIRE 240 624 112 624
WIRE 368 624 368 544
WIRE 368 624 240 624
WIRE 240 640 240 624
FLAG 240 640 0
FLAG 1296 400 0
SYMBOL Voltage 176 192 R180
WINDOW 0 24 96 Left 2
WINDOW 3 24 16 Left 2
SYMATTR InstName V1
SYMATTR Value 5V
SYMBOL Res 96 240 R0
SYMATTR InstName R1
SYMATTR Value {R}
SYMBOL Res 352 240 R0
SYMATTR InstName R2
SYMATTR Value {R}
SYMBOL Res 96 448 R0
SYMATTR InstName R3
SYMATTR Value {R}
SYMBOL Res 352 448 R0
SYMATTR InstName R4
SYMATTR Value {R}
SYMBOL AD8226 720 384 R0
SYMATTR InstName U1
SYMBOL Res 640 432 R180
WINDOW 0 36 76 Left 2
WINDOW 3 36 40 Left 2
SYMATTR InstName R5
SYMATTR Value 47
SYMBOL LED 1200 400 R270
WINDOW 0 72 32 VTop 2
WINDOW 3 0 32 VBottom 2
SYMATTR InstName D1
SYMBOL Res 1136 368 R90
WINDOW 0 0 56 VBottom 2
WINDOW 3 32 56 VTop 2
SYMATTR InstName R6
SYMATTR Value 1k
SYMBOL voltage 672 112 R90
WINDOW 0 -32 56 VBottom 2
WINDOW 3 32 56 VTop 2
SYMATTR InstName V2
SYMATTR Value 5V
SYMBOL Voltage 800 464 R0
SYMATTR InstName V3
SYMATTR Value 2.5V
TEXT 584 656 Left 2 !.op
TEXT 592 696 Left 2 !.param R=350
TEXT 592 736 Left 2 !.param eps=0.001
